LAMMPS (22 Aug 2018)
#.........................................................
# LAMMPS input script for Cone Penetration Testing
# Version: LAMMPS 22.08.18
#.........................................................

#..............Initial Setup..............#
clear
units si
dimension 3
boundary p p f
atom_style sphere
newton on
comm_modify vel yes
comm_style brick
comm_modify mode single    # Better for rigid bodies

#..............Domain Definition..............#
region domain block 0 0.2 0 0.2 0 0.5 units box
create_box 2 domain
Created orthogonal box = (0 0 0) to (0.2 0.2 0.5)

#..............Soil Properties..............#
# Define lattice first, then create soil
lattice fcc 0.005656
Lattice spacing in x,y,z = 0.005656 0.005656 0.005656
region soil_bed block 0 0.2 0 0.2 0 0.3 units box
create_atoms 1 region soil_bed
Created 269694 atoms
  Time spent = 0.0307953 secs
group soil type 1
269694 atoms in group soil
set type 1 diameter 0.004
  269694 settings made for diameter
set type 1 density 2650
  269694 settings made for density

#..............Overlap Management..............#
region overlap_region cylinder z 0.1 0.1 0.006 0.32 0.42 units box
group overlap_group region overlap_region
0 atoms in group overlap_group
group soil_to_delete intersect soil overlap_group
0 atoms in group soil_to_delete
delete_atoms group soil_to_delete
Deleted 0 atoms, new total = 269694

#..............Probe Properties..............#
# Define new lattice for probe, then create probe
lattice fcc 0.002828
Lattice spacing in x,y,z = 0.002828 0.002828 0.002828
region probe_cyl cylinder z 0.1 0.1 0.005 0.3 0.42 units box
create_atoms 2 region probe_cyl
Created 1656 atoms
  Time spent = 0.0563412 secs
group probe type 2
1656 atoms in group probe
set group probe diameter 0.002
  1656 settings made for diameter
set group probe density 7800
  1656 settings made for density

#..............Particle Interactions..............#
neighbor        0.002 bin
neigh_modify    delay 0 every 1 check yes one 5000 page 500000

# Granular contact model with history
pair_style      gran/hooke/history 5e7 NULL 0.3 NULL 0.4 1
# Apply to all particle interactions
pair_coeff      * *

#..............Dynamics Setup..............#
fix             probe_rigid probe rigid single
1 rigid bodies with 1656 atoms
fix             nve_soil soil nve/sphere
fix             gravity all gravity 9.81 vector 0 0 -1

#..............Output Settings..............#
thermo          1000
thermo_style    custom step atoms ke pe vol temp press
thermo_modify   lost warn norm yes

#..............Visualization..............#
dump            1 all custom 1000 dump.dat id type x y z radius
dump_modify     1 sort id

#..............Run Settings..............#
# Initial conditions
velocity        probe set 0.0 0.0 0.0
velocity        probe set 0.0 0.0 -0.01
timestep        1e-6    # Safe timestep < sqrt(m/k) = 1.28e-6

# Minimize before running
minimize        1.0e-6 1.0e-6 1000 1000
  update every 1 steps, delay 0 steps, check yes
Step Atoms KinEng PotEng Volume Temp Press
0   271350 7.9733813e-17            0         0.02      3897619     28819129
Loop time of 3.77901 on 1 procs for 1 steps with 268829 atoms

Minimization stats:
  Stopping criterion = linesearch alpha is zero
  Energy initial, next-to-last, final =
  Force two-norm initial, final = 1.22406e+07 1.2181e+07
  Force max component initial, final = 149979 149979
  Final line search alpha, max atom move = 1.94053e-17 2.91038e-12
  Iterations, force evaluations = 1 36

# Short run to check setup
run             50000
Step Atoms KinEng PotEng Volume Temp Press
1   268829 8.0481533e-17            0         0.02    3934625.6     24969289
Averages over the last 26 of 52 rows, steps 26000 to 50001:
Atoms KinEng PotEng Volume Temp Press
3000.46 0.00344531 0 0.02 1.9352e+18 357.868
Loop time of 113.864 on 1 procs for 50000 steps with 2215 atoms
